  0
SECTION
  2
ENTITIES
999
DXF created from EnergyPlus
999
Program Version,EnergyPlus, Version 9.4.0-998c4b761e, YMD=2024.12.04 11:19
999
Polygon Action,TRIANGULATE3DFACE
999
Color Scheme,Default
999
Text - True North
  0
TEXT
  8
1
  6
Continuous
 62
  3
 10
      -20.07674
 20
       -8.01520
 30
        0.10000
 40
 .25
  1
True North
 41
 0.0
  7
MONOTXT
210
0.0
220
0.0
230
1.0
999
Text - Building Title
  0
TEXT
  8
1
  6
Continuous
 62
  3
 10
      -23.07674
 20
      -12.01520
 30
        0.10000
 40
 .4
  1
Building - Building
 41
 0.0
  7
MONOTXT
210
0.0
220
0.0
230
1.0
999
North Arrow Stem
  0
3DFACE
  8
1
 62
  3
 10
      -19.07674
 20
       -8.01520
 30
        0.10000
 11
      -19.07674
 21
       -8.01520
 31
        0.00000
 12
      -19.07674
 22
      -11.01520
 32
        0.00000
 13
      -19.07674
 23
      -11.01520
 33
        0.10000
999
North Arrow Head 1
  0
3DFACE
  8
1
 62
  3
 10
      -19.07674
 20
       -8.01520
 30
        0.10000
 11
      -19.07674
 21
       -8.01520
 31
        0.00000
 12
      -19.57674
 22
       -8.88122
 32
        0.00000
 13
      -19.57674
 23
       -8.88122
 33
        0.10000
999
North Arrow Head 2
  0
3DFACE
  8
1
 62
  3
 10
      -19.07674
 20
       -8.01520
 30
        0.10000
 11
      -19.07674
 21
       -8.01520
 31
        0.00000
 12
      -18.57674
 22
       -8.88122
 32
        0.00000
 13
      -18.57674
 23
       -8.88122
 33
        0.10000
999
North Arrow Side 1
  0
3DFACE
  8
1
 62
  3
 10
      -19.57674
 20
       -6.51520
 30
        0.10000
 11
      -19.57674
 21
       -6.51520
 31
        0.00000
 12
      -19.57674
 22
       -7.51520
 32
        0.00000
 13
      -19.57674
 23
       -7.51520
 33
        0.10000
999
North Arrow Side 2
  0
3DFACE
  8
1
 62
  3
 10
      -19.57674
 20
       -6.51520
 30
        0.10000
 11
      -19.57674
 21
       -6.51520
 31
        0.00000
 12
      -18.57674
 22
       -7.51520
 32
        0.00000
 13
      -18.57674
 23
       -7.51520
 33
        0.10000
999
North Arrow Side 3
  0
3DFACE
  8
1
 62
  3
 10
      -18.57674
 20
       -6.51520
 30
        0.10000
 11
      -18.57674
 21
       -6.51520
 31
        0.00000
 12
      -18.57674
 22
       -7.51520
 32
        0.00000
 13
      -18.57674
 23
       -7.51520
 33
        0.10000
999
Zone Names
999
Zone=1:BLOCK1_OFFICEXSWX1F
999
Zone=2:BLOCK1_OFFICEXSEX1F
999
Zone=3:BLOCK1_OFFICEXNWX1F
999
Zone=4:BLOCK1_OFFICEXNEX1F
999
Zone=5:BLOCK1_CORRIDORX1F
999
Zone=6:BLOCK2_OFFICEXSWX2F
999
Zone=7:BLOCK2_OFFICEXSEX2F
999
Zone=8:BLOCK2_OFFICEXNWX2F
999
Zone=9:BLOCK2_OFFICEXNEX2F
999
Zone=10:BLOCK2_CORRIDORX2F
999
Building Shading:BUILDING 1 - COMPONENT BLOCK 2 - SURFACE 1 (1)
  0
3DFACE
  8
Building Shading
 62
195
 10
       -9.07674
 20
        6.98480
 30
       10.50000
 11
       -9.07674
 21
        6.98480
 31
        3.50000
 12
       -9.07674
 22
      -11.01520
 32
        3.50000
 13
       -9.07674
 23
      -11.01520
 33
       10.50000
999
Building Shading:Mir-BUILDING 1 - COMPONENT BLOCK 2 - SURFACE 1 (1)
  0
3DFACE
  8
Building Shading
 62
195
 10
       -9.07674
 20
      -11.01520
 30
       10.50000
 11
       -9.07674
 21
      -11.01520
 31
        3.50000
 12
       -9.07674
 22
        6.98480
 32
        3.50000
 13
       -9.07674
 23
        6.98480
 33
       10.50000
999
Building Shading:BUILDING 1 - COMPONENT BLOCK 1 - SURFACE 1 (2)
  0
3DFACE
  8
Building Shading
 62
195
 10
        7.12326
 20
      -11.01520
 30
       10.50000
 11
        7.12326
 21
      -11.01520
 31
        3.50000
 12
        7.12326
 22
        6.98480
 32
        3.50000
 13
        7.12326
 23
        6.98480
 33
       10.50000
999
Building Shading:Mir-BUILDING 1 - COMPONENT BLOCK 1 - SURFACE 1 (2)
  0
3DFACE
  8
Building Shading
 62
195
 10
        7.12326
 20
        6.98480
 30
       10.50000
 11
        7.12326
 21
        6.98480
 31
        3.50000
 12
        7.12326
 22
      -11.01520
 32
        3.50000
 13
        7.12326
 23
      -11.01520
 33
       10.50000
999
Building Shading:BUILDING 1 - COMPONENT BLOCK 3 - SURFACE 1 (3)
  0
3DFACE
  8
Building Shading
 62
195
 10
        7.12326
 20
        6.98480
 30
        0.00000
 11
        7.12326
 21
      -11.01520
 31
        0.00000
 12
       -9.07674
 22
      -11.01520
 32
        0.00000
 13
       -9.07674
 23
        6.98480
 33
        0.00000
999
Building Shading:Mir-BUILDING 1 - COMPONENT BLOCK 3 - SURFACE 1 (3)
  0
3DFACE
  8
Building Shading
 62
195
 10
       -9.07674
 20
        6.98480
 30
        0.00000
 11
       -9.07674
 21
      -11.01520
 31
        0.00000
 12
        7.12326
 22
      -11.01520
 32
        0.00000
 13
        7.12326
 23
        6.98480
 33
        0.00000
999
Building Shading:BUILDING 1 - COMPONENT BLOCK 3 - SURFACE 2 (4)
  0
3DFACE
  8
Building Shading
 62
195
 10
       -9.07674
 20
      -11.01520
 30
        3.50000
 11
       -9.07674
 21
      -11.01520
 31
        0.00000
 12
        7.12326
 22
      -11.01520
 32
        0.00000
 13
        7.12326
 23
      -11.01520
 33
        3.50000
999
Building Shading:Mir-BUILDING 1 - COMPONENT BLOCK 3 - SURFACE 2 (4)
  0
3DFACE
  8
Building Shading
 62
195
 10
        7.12326
 20
      -11.01520
 30
        3.50000
 11
        7.12326
 21
      -11.01520
 31
        0.00000
 12
       -9.07674
 22
      -11.01520
 32
        0.00000
 13
       -9.07674
 23
      -11.01520
 33
        3.50000
999
Building Shading:BUILDING 1 - COMPONENT BLOCK 3 - SURFACE 3 (5)
  0
3DFACE
  8
Building Shading
 62
195
 10
        7.12326
 20
      -11.01520
 30
        3.50000
 11
        7.12326
 21
      -11.01520
 31
        0.00000
 12
        7.12326
 22
        6.98480
 32
        0.00000
 13
        7.12326
 23
        6.98480
 33
        3.50000
999
Building Shading:Mir-BUILDING 1 - COMPONENT BLOCK 3 - SURFACE 3 (5)
  0
3DFACE
  8
Building Shading
 62
195
 10
        7.12326
 20
        6.98480
 30
        3.50000
 11
        7.12326
 21
        6.98480
 31
        0.00000
 12
        7.12326
 22
      -11.01520
 32
        0.00000
 13
        7.12326
 23
      -11.01520
 33
        3.50000
999
Building Shading:BUILDING 1 - COMPONENT BLOCK 3 - SURFACE 4 (6)
  0
3DFACE
  8
Building Shading
 62
195
 10
       -9.07674
 20
        6.98480
 30
        3.50000
 11
       -9.07674
 21
        6.98480
 31
        0.00000
 12
       -9.07674
 22
      -11.01520
 32
        0.00000
 13
       -9.07674
 23
      -11.01520
 33
        3.50000
999
Building Shading:Mir-BUILDING 1 - COMPONENT BLOCK 3 - SURFACE 4 (6)
  0
3DFACE
  8
Building Shading
 62
195
 10
       -9.07674
 20
      -11.01520
 30
        3.50000
 11
       -9.07674
 21
      -11.01520
 31
        0.00000
 12
       -9.07674
 22
        6.98480
 32
        0.00000
 13
       -9.07674
 23
        6.98480
 33
        3.50000
999
Building Shading:BUILDING 1 - COMPONENT BLOCK 3 - SURFACE 5 (7)
  0
3DFACE
  8
Building Shading
 62
195
 10
        7.12326
 20
        6.98480
 30
        3.50000
 11
        7.12326
 21
        6.98480
 31
        0.00000
 12
       -9.07674
 22
        6.98480
 32
        0.00000
 13
       -9.07674
 23
        6.98480
 33
        3.50000
999
Building Shading:Mir-BUILDING 1 - COMPONENT BLOCK 3 - SURFACE 5 (7)
  0
3DFACE
  8
Building Shading
 62
195
 10
       -9.07674
 20
        6.98480
 30
        3.50000
 11
       -9.07674
 21
        6.98480
 31
        0.00000
 12
        7.12326
 22
        6.98480
 32
        0.00000
 13
        7.12326
 23
        6.98480
 33
        3.50000
999
Building Shading:BUILDING 1 - COMPONENT BLOCK 3 - SURFACE 6 (8)
  0
3DFACE
  8
Building Shading
 62
195
 10
       -9.07674
 20
        6.98480
 30
        3.50000
 11
       -9.07674
 21
      -11.01520
 31
        3.50000
 12
        7.12326
 22
      -11.01520
 32
        3.50000
 13
        7.12326
 23
        6.98480
 33
        3.50000
999
Building Shading:Mir-BUILDING 1 - COMPONENT BLOCK 3 - SURFACE 6 (8)
  0
3DFACE
  8
Building Shading
 62
195
 10
        7.12326
 20
        6.98480
 30
        3.50000
 11
        7.12326
 21
      -11.01520
 31
        3.50000
 12
       -9.07674
 22
      -11.01520
 32
        3.50000
 13
       -9.07674
 23
        6.98480
 33
        3.50000
999
BLOCK1:OFFICEXSWX1F:BLOCK1:OFFICEXSWX1F_PARTITION_2_0_0
  0
3DFACE
  8
BLOCK1_OFFICEXSWX1F
 62
 43
 10
       -0.97674
 20
      -11.01520
 30
        7.00000
 11
       -0.97674
 21
      -11.01520
 31
        3.50000
 12
       -0.97674
 22
       -3.01520
 32
        3.50000
 13
       -0.97674
 23
       -3.01520
 33
        7.00000
999
BLOCK1:OFFICEXSWX1F:BLOCK1:OFFICEXSWX1F_PARTITION_3_0_0
  0
3DFACE
  8
BLOCK1_OFFICEXSWX1F
 62
 43
 10
       -0.97674
 20
       -3.01520
 30
        7.00000
 11
       -0.97674
 21
       -3.01520
 31
        3.50000
 12
       -8.97674
 22
       -3.01520
 32
        3.50000
 13
       -8.97674
 23
       -3.01520
 33
        7.00000
999
BLOCK1:OFFICEXSWX1F:BLOCK1:OFFICEXSWX1F_PARTITION_3_0_0_0_0_0_DOOR
  0
3DFACE
  8
BLOCK1_OFFICEXSWX1F
 62
 45
 10
       -4.52674
 20
       -3.01520
 30
        5.70000
 11
       -4.52674
 21
       -3.01520
 31
        3.60000
 12
       -5.42674
 22
       -3.01520
 32
        3.60000
 13
       -5.42674
 23
       -3.01520
 33
        5.70000
999
BLOCK1:OFFICEXSWX1F:BLOCK1:OFFICEXSWX1F_PARTITION_4_0_0
  0
3DFACE
  8
BLOCK1_OFFICEXSWX1F
 62
 43
 10
       -8.97674
 20
       -3.01520
 30
        7.00000
 11
       -8.97674
 21
       -3.01520
 31
        3.50000
 12
       -8.97674
 22
      -11.01520
 32
        3.50000
 13
       -8.97674
 23
      -11.01520
 33
        7.00000
999
BLOCK1:OFFICEXSWX1F:BLOCK1:OFFICEXSWX1F_WALL_5_0_0
  0
3DFACE
  8
BLOCK1_OFFICEXSWX1F
 62
 43
 10
       -8.97674
 20
      -11.01520
 30
        7.00000
 11
       -8.97674
 21
      -11.01520
 31
        3.50000
 12
       -0.97674
 22
      -11.01520
 32
        3.50000
 13
       -0.97674
 23
      -11.01520
 33
        7.00000
999
BLOCK1:OFFICEXSWX1F:BLOCK1:OFFICEXSWX1F_WALL_5_0_0_0_0_0_WIN
  0
3DFACE
  8
BLOCK1_OFFICEXSWX1F
 62
143
 10
       -7.60574
 20
      -11.01520
 30
        5.86000
 11
       -7.60574
 21
      -11.01520
 31
        4.44000
 12
       -2.34774
 22
      -11.01520
 32
        4.44000
 13
       -2.34774
 23
      -11.01520
 33
        5.86000
999
BLOCK1:OFFICEXSWX1F:BLOCK1:OFFICEXSWX1F_FLOOR_0_0_0
  0
3DFACE
  8
BLOCK1_OFFICEXSWX1F
 62
  8
 10
       -0.97674
 20
       -3.01520
 30
        3.50000
 11
       -0.97674
 21
      -11.01520
 31
        3.50000
 12
       -8.97674
 22
      -11.01520
 32
        3.50000
 13
       -8.97674
 23
       -3.01520
 33
        3.50000
999
BLOCK1:OFFICEXSWX1F:BLOCK1:OFFICEXSWX1F_CEILING_1_0_0
  0
3DFACE
  8
BLOCK1_OFFICEXSWX1F
 62
 15
 10
       -8.97674
 20
       -3.01520
 30
        7.00000
 11
       -8.97674
 21
      -11.01520
 31
        7.00000
 12
       -0.97674
 22
      -11.01520
 32
        7.00000
 13
       -0.97674
 23
       -3.01520
 33
        7.00000
999
BLOCK1:OFFICEXSEX1F:BLOCK1:OFFICEXSEX1F_PARTITION_4_0_10002
  0
3DFACE
  8
BLOCK1_OFFICEXSEX1F
 62
 43
 10
       -0.97674
 20
       -3.01520
 30
        7.00000
 11
       -0.97674
 21
       -3.01520
 31
        3.50000
 12
       -0.97674
 22
      -11.01520
 32
        3.50000
 13
       -0.97674
 23
      -11.01520
 33
        7.00000
999
BLOCK1:OFFICEXSEX1F:BLOCK1:OFFICEXSEX1F_PARTITION_2_0_0
  0
3DFACE
  8
BLOCK1_OFFICEXSEX1F
 62
 43
 10
        7.02326
 20
      -11.01520
 30
        7.00000
 11
        7.02326
 21
      -11.01520
 31
        3.50000
 12
        7.02326
 22
       -3.01520
 32
        3.50000
 13
        7.02326
 23
       -3.01520
 33
        7.00000
999
BLOCK1:OFFICEXSEX1F:BLOCK1:OFFICEXSEX1F_PARTITION_3_0_0
  0
3DFACE
  8
BLOCK1_OFFICEXSEX1F
 62
 43
 10
        7.02326
 20
       -3.01520
 30
        7.00000
 11
        7.02326
 21
       -3.01520
 31
        3.50000
 12
       -0.97674
 22
       -3.01520
 32
        3.50000
 13
       -0.97674
 23
       -3.01520
 33
        7.00000
999
BLOCK1:OFFICEXSEX1F:BLOCK1:OFFICEXSEX1F_PARTITION_3_0_0_0_0_0_DOOR
  0
3DFACE
  8
BLOCK1_OFFICEXSEX1F
 62
 45
 10
        3.47326
 20
       -3.01520
 30
        5.70000
 11
        3.47326
 21
       -3.01520
 31
        3.60000
 12
        2.57326
 22
       -3.01520
 32
        3.60000
 13
        2.57326
 23
       -3.01520
 33
        5.70000
999
BLOCK1:OFFICEXSEX1F:BLOCK1:OFFICEXSEX1F_WALL_5_0_0
  0
3DFACE
  8
BLOCK1_OFFICEXSEX1F
 62
 43
 10
       -0.97674
 20
      -11.01520
 30
        7.00000
 11
       -0.97674
 21
      -11.01520
 31
        3.50000
 12
        7.02326
 22
      -11.01520
 32
        3.50000
 13
        7.02326
 23
      -11.01520
 33
        7.00000
999
BLOCK1:OFFICEXSEX1F:BLOCK1:OFFICEXSEX1F_WALL_5_0_0_0_0_0_WIN
  0
3DFACE
  8
BLOCK1_OFFICEXSEX1F
 62
143
 10
        0.39426
 20
      -11.01520
 30
        5.86000
 11
        0.39426
 21
      -11.01520
 31
        4.44000
 12
        5.65226
 22
      -11.01520
 32
        4.44000
 13
        5.65226
 23
      -11.01520
 33
        5.86000
999
BLOCK1:OFFICEXSEX1F:BLOCK1:OFFICEXSEX1F_FLOOR_0_0_0
  0
3DFACE
  8
BLOCK1_OFFICEXSEX1F
 62
  8
 10
        7.02326
 20
       -3.01520
 30
        3.50000
 11
        7.02326
 21
      -11.01520
 31
        3.50000
 12
       -0.97674
 22
      -11.01520
 32
        3.50000
 13
       -0.97674
 23
       -3.01520
 33
        3.50000
999
BLOCK1:OFFICEXSEX1F:BLOCK1:OFFICEXSEX1F_CEILING_1_0_0
  0
3DFACE
  8
BLOCK1_OFFICEXSEX1F
 62
 15
 10
       -0.97674
 20
       -3.01520
 30
        7.00000
 11
       -0.97674
 21
      -11.01520
 31
        7.00000
 12
        7.02326
 22
      -11.01520
 32
        7.00000
 13
        7.02326
 23
       -3.01520
 33
        7.00000
999
BLOCK1:OFFICEXNWX1F:BLOCK1:OFFICEXNWX1F_PARTITION_2_0_0
  0
3DFACE
  8
BLOCK1_OFFICEXNWX1F
 62
 43
 10
       -0.97674
 20
       -1.01520
 30
        7.00000
 11
       -0.97674
 21
       -1.01520
 31
        3.50000
 12
       -0.97674
 22
        6.98480
 32
        3.50000
 13
       -0.97674
 23
        6.98480
 33
        7.00000
999
BLOCK1:OFFICEXNWX1F:BLOCK1:OFFICEXNWX1F_WALL_3_0_0
  0
3DFACE
  8
BLOCK1_OFFICEXNWX1F
 62
 43
 10
       -0.97674
 20
        6.98480
 30
        7.00000
 11
       -0.97674
 21
        6.98480
 31
        3.50000
 12
       -8.97674
 22
        6.98480
 32
        3.50000
 13
       -8.97674
 23
        6.98480
 33
        7.00000
999
BLOCK1:OFFICEXNWX1F:BLOCK1:OFFICEXNWX1F_WALL_3_0_0_0_0_0_WIN
  0
3DFACE
  8
BLOCK1_OFFICEXNWX1F
 62
143
 10
       -2.34774
 20
        6.98480
 30
        5.86000
 11
       -2.34774
 21
        6.98480
 31
        4.44000
 12
       -7.60574
 22
        6.98480
 32
        4.44000
 13
       -7.60574
 23
        6.98480
 33
        5.86000
999
BLOCK1:OFFICEXNWX1F:BLOCK1:OFFICEXNWX1F_PARTITION_4_0_0
  0
3DFACE
  8
BLOCK1_OFFICEXNWX1F
 62
 43
 10
       -8.97674
 20
        6.98480
 30
        7.00000
 11
       -8.97674
 21
        6.98480
 31
        3.50000
 12
       -8.97674
 22
       -1.01520
 32
        3.50000
 13
       -8.97674
 23
       -1.01520
 33
        7.00000
999
BLOCK1:OFFICEXNWX1F:BLOCK1:OFFICEXNWX1F_PARTITION_5_0_0
  0
3DFACE
  8
BLOCK1_OFFICEXNWX1F
 62
 43
 10
       -8.97674
 20
       -1.01520
 30
        7.00000
 11
       -8.97674
 21
       -1.01520
 31
        3.50000
 12
       -0.97674
 22
       -1.01520
 32
        3.50000
 13
       -0.97674
 23
       -1.01520
 33
        7.00000
999
BLOCK1:OFFICEXNWX1F:BLOCK1:OFFICEXNWX1F_PARTITION_5_0_0_0_0_0_DOOR
  0
3DFACE
  8
BLOCK1_OFFICEXNWX1F
 62
 45
 10
       -5.42674
 20
       -1.01520
 30
        5.70000
 11
       -5.42674
 21
       -1.01520
 31
        3.60000
 12
       -4.52674
 22
       -1.01520
 32
        3.60000
 13
       -4.52674
 23
       -1.01520
 33
        5.70000
999
BLOCK1:OFFICEXNWX1F:BLOCK1:OFFICEXNWX1F_FLOOR_0_0_0
  0
3DFACE
  8
BLOCK1_OFFICEXNWX1F
 62
  8
 10
       -0.97674
 20
        6.98480
 30
        3.50000
 11
       -0.97674
 21
       -1.01520
 31
        3.50000
 12
       -8.97674
 22
       -1.01520
 32
        3.50000
 13
       -8.97674
 23
        6.98480
 33
        3.50000
999
BLOCK1:OFFICEXNWX1F:BLOCK1:OFFICEXNWX1F_CEILING_1_0_0
  0
3DFACE
  8
BLOCK1_OFFICEXNWX1F
 62
 15
 10
       -8.97674
 20
        6.98480
 30
        7.00000
 11
       -8.97674
 21
       -1.01520
 31
        7.00000
 12
       -0.97674
 22
       -1.01520
 32
        7.00000
 13
       -0.97674
 23
        6.98480
 33
        7.00000
999
BLOCK1:OFFICEXNEX1F:BLOCK1:OFFICEXNEX1F_PARTITION_4_0_10013
  0
3DFACE
  8
BLOCK1_OFFICEXNEX1F
 62
 43
 10
       -0.97674
 20
        6.98480
 30
        7.00000
 11
       -0.97674
 21
        6.98480
 31
        3.50000
 12
       -0.97674
 22
       -1.01520
 32
        3.50000
 13
       -0.97674
 23
       -1.01520
 33
        7.00000
999
BLOCK1:OFFICEXNEX1F:BLOCK1:OFFICEXNEX1F_PARTITION_2_0_0
  0
3DFACE
  8
BLOCK1_OFFICEXNEX1F
 62
 43
 10
        7.02326
 20
       -1.01520
 30
        7.00000
 11
        7.02326
 21
       -1.01520
 31
        3.50000
 12
        7.02326
 22
        6.98480
 32
        3.50000
 13
        7.02326
 23
        6.98480
 33
        7.00000
999
BLOCK1:OFFICEXNEX1F:BLOCK1:OFFICEXNEX1F_WALL_3_0_0
  0
3DFACE
  8
BLOCK1_OFFICEXNEX1F
 62
 43
 10
        7.02326
 20
        6.98480
 30
        7.00000
 11
        7.02326
 21
        6.98480
 31
        3.50000
 12
       -0.97674
 22
        6.98480
 32
        3.50000
 13
       -0.97674
 23
        6.98480
 33
        7.00000
999
BLOCK1:OFFICEXNEX1F:BLOCK1:OFFICEXNEX1F_WALL_3_0_0_0_0_0_WIN
  0
3DFACE
  8
BLOCK1_OFFICEXNEX1F
 62
143
 10
        5.65226
 20
        6.98480
 30
        5.86000
 11
        5.65226
 21
        6.98480
 31
        4.44000
 12
        0.39426
 22
        6.98480
 32
        4.44000
 13
        0.39426
 23
        6.98480
 33
        5.86000
999
BLOCK1:OFFICEXNEX1F:BLOCK1:OFFICEXNEX1F_PARTITION_5_0_0
  0
3DFACE
  8
BLOCK1_OFFICEXNEX1F
 62
 43
 10
       -0.97674
 20
       -1.01520
 30
        7.00000
 11
       -0.97674
 21
       -1.01520
 31
        3.50000
 12
        7.02326
 22
       -1.01520
 32
        3.50000
 13
        7.02326
 23
       -1.01520
 33
        7.00000
999
BLOCK1:OFFICEXNEX1F:BLOCK1:OFFICEXNEX1F_PARTITION_5_0_0_0_0_0_DOOR
  0
3DFACE
  8
BLOCK1_OFFICEXNEX1F
 62
 45
 10
        2.57326
 20
       -1.01520
 30
        5.70000
 11
        2.57326
 21
       -1.01520
 31
        3.60000
 12
        3.47326
 22
       -1.01520
 32
        3.60000
 13
        3.47326
 23
       -1.01520
 33
        5.70000
999
BLOCK1:OFFICEXNEX1F:BLOCK1:OFFICEXNEX1F_FLOOR_0_0_0
  0
3DFACE
  8
BLOCK1_OFFICEXNEX1F
 62
  8
 10
        7.02326
 20
        6.98480
 30
        3.50000
 11
        7.02326
 21
       -1.01520
 31
        3.50000
 12
       -0.97674
 22
       -1.01520
 32
        3.50000
 13
       -0.97674
 23
        6.98480
 33
        3.50000
999
BLOCK1:OFFICEXNEX1F:BLOCK1:OFFICEXNEX1F_CEILING_1_0_0
  0
3DFACE
  8
BLOCK1_OFFICEXNEX1F
 62
 15
 10
       -0.97674
 20
        6.98480
 30
        7.00000
 11
       -0.97674
 21
       -1.01520
 31
        7.00000
 12
        7.02326
 22
       -1.01520
 32
        7.00000
 13
        7.02326
 23
        6.98480
 33
        7.00000
999
BLOCK1:CORRIDORX1F:BLOCK1:CORRIDORX1F_PARTITION_6_0_10003
  0
3DFACE
  8
BLOCK1_CORRIDORX1F
 62
 43
 10
       -8.97674
 20
       -3.01520
 30
        7.00000
 11
       -8.97674
 21
       -3.01520
 31
        3.50000
 12
       -0.97674
 22
       -3.01520
 32
        3.50000
 13
       -0.97674
 23
       -3.01520
 33
        7.00000
999
BLOCK1:CORRIDORX1F:BLOCK1:CORRIDORX1F_PARTITION_6_0_0_0_0_0_DOOR_10005
  0
3DFACE
  8
BLOCK1_CORRIDORX1F
 62
 45
 10
       -5.42674
 20
       -3.01520
 30
        5.70000
 11
       -5.42674
 21
       -3.01520
 31
        3.60000
 12
       -4.52674
 22
       -3.01520
 32
        3.60000
 13
       -4.52674
 23
       -3.01520
 33
        5.70000
999
BLOCK1:CORRIDORX1F:BLOCK1:CORRIDORX1F_PARTITION_7_0_10009
  0
3DFACE
  8
BLOCK1_CORRIDORX1F
 62
 43
 10
       -0.97674
 20
       -3.01520
 30
        7.00000
 11
       -0.97674
 21
       -3.01520
 31
        3.50000
 12
        7.02326
 22
       -3.01520
 32
        3.50000
 13
        7.02326
 23
       -3.01520
 33
        7.00000
999
BLOCK1:CORRIDORX1F:BLOCK1:CORRIDORX1F_PARTITION_7_0_0_0_0_0_DOOR_10011
  0
3DFACE
  8
BLOCK1_CORRIDORX1F
 62
 45
 10
        2.57326
 20
       -3.01520
 30
        5.70000
 11
        2.57326
 21
       -3.01520
 31
        3.60000
 12
        3.47326
 22
       -3.01520
 32
        3.60000
 13
        3.47326
 23
       -3.01520
 33
        5.70000
999
BLOCK1:CORRIDORX1F:BLOCK1:CORRIDORX1F_PARTITION_4_0_10015
  0
3DFACE
  8
BLOCK1_CORRIDORX1F
 62
 43
 10
       -0.97674
 20
       -1.01520
 30
        7.00000
 11
       -0.97674
 21
       -1.01520
 31
        3.50000
 12
       -8.97674
 22
       -1.01520
 32
        3.50000
 13
       -8.97674
 23
       -1.01520
 33
        7.00000
999
BLOCK1:CORRIDORX1F:BLOCK1:CORRIDORX1F_PARTITION_4_0_0_0_0_0_DOOR_10017
  0
3DFACE
  8
BLOCK1_CORRIDORX1F
 62
 45
 10
       -4.52674
 20
       -1.01520
 30
        5.70000
 11
       -4.52674
 21
       -1.01520
 31
        3.60000
 12
       -5.42674
 22
       -1.01520
 32
        3.60000
 13
       -5.42674
 23
       -1.01520
 33
        5.70000
999
BLOCK1:CORRIDORX1F:BLOCK1:CORRIDORX1F_PARTITION_3_0_10020
  0
3DFACE
  8
BLOCK1_CORRIDORX1F
 62
 43
 10
        7.02326
 20
       -1.01520
 30
        7.00000
 11
        7.02326
 21
       -1.01520
 31
        3.50000
 12
       -0.97674
 22
       -1.01520
 32
        3.50000
 13
       -0.97674
 23
       -1.01520
 33
        7.00000
999
BLOCK1:CORRIDORX1F:BLOCK1:CORRIDORX1F_PARTITION_3_0_0_0_0_0_DOOR_10022
  0
3DFACE
  8
BLOCK1_CORRIDORX1F
 62
 45
 10
        3.47326
 20
       -1.01520
 30
        5.70000
 11
        3.47326
 21
       -1.01520
 31
        3.60000
 12
        2.57326
 22
       -1.01520
 32
        3.60000
 13
        2.57326
 23
       -1.01520
 33
        5.70000
999
BLOCK1:CORRIDORX1F:BLOCK1:CORRIDORX1F_PARTITION_2_0_0
  0
3DFACE
  8
BLOCK1_CORRIDORX1F
 62
 43
 10
        7.02326
 20
       -3.01520
 30
        7.00000
 11
        7.02326
 21
       -3.01520
 31
        3.50000
 12
        7.02326
 22
       -1.01520
 32
        3.50000
 13
        7.02326
 23
       -1.01520
 33
        7.00000
999
BLOCK1:CORRIDORX1F:BLOCK1:CORRIDORX1F_PARTITION_5_0_0
  0
3DFACE
  8
BLOCK1_CORRIDORX1F
 62
 43
 10
       -8.97674
 20
       -1.01520
 30
        7.00000
 11
       -8.97674
 21
       -1.01520
 31
        3.50000
 12
       -8.97674
 22
       -3.01520
 32
        3.50000
 13
       -8.97674
 23
       -3.01520
 33
        7.00000
999
BLOCK1:CORRIDORX1F:BLOCK1:CORRIDORX1F_FLOOR_0_0_0
  0
3DFACE
  8
BLOCK1_CORRIDORX1F
 62
  8
 10
        7.02326
 20
       -1.01520
 30
        3.50000
 11
        7.02326
 21
       -3.01520
 31
        3.50000
 12
       -8.97674
 22
       -3.01520
 32
        3.50000
 13
       -8.97674
 23
       -1.01520
 33
        3.50000
999
BLOCK1:CORRIDORX1F:BLOCK1:CORRIDORX1F_CEILING_1_0_0
  0
3DFACE
  8
BLOCK1_CORRIDORX1F
 62
 15
 10
       -8.97674
 20
       -1.01520
 30
        7.00000
 11
       -8.97674
 21
       -3.01520
 31
        7.00000
 12
        7.02326
 22
       -3.01520
 32
        7.00000
 13
        7.02326
 23
       -1.01520
 33
        7.00000
999
BLOCK2:OFFICEXSWX2F:BLOCK2:OFFICEXSWX2F_PARTITION_2_0_0
  0
3DFACE
  8
BLOCK2_OFFICEXSWX2F
 62
 43
 10
       -0.97674
 20
      -11.01520
 30
       10.50000
 11
       -0.97674
 21
      -11.01520
 31
        7.00000
 12
       -0.97674
 22
       -3.01520
 32
        7.00000
 13
       -0.97674
 23
       -3.01520
 33
       10.50000
999
BLOCK2:OFFICEXSWX2F:BLOCK2:OFFICEXSWX2F_PARTITION_3_0_0
  0
3DFACE
  8
BLOCK2_OFFICEXSWX2F
 62
 43
 10
       -0.97674
 20
       -3.01520
 30
       10.50000
 11
       -0.97674
 21
       -3.01520
 31
        7.00000
 12
       -8.97674
 22
       -3.01520
 32
        7.00000
 13
       -8.97674
 23
       -3.01520
 33
       10.50000
999
BLOCK2:OFFICEXSWX2F:BLOCK2:OFFICEXSWX2F_PARTITION_3_0_0_0_0_0_DOOR
  0
3DFACE
  8
BLOCK2_OFFICEXSWX2F
 62
 45
 10
       -4.52674
 20
       -3.01520
 30
        9.20000
 11
       -4.52674
 21
       -3.01520
 31
        7.10000
 12
       -5.42674
 22
       -3.01520
 32
        7.10000
 13
       -5.42674
 23
       -3.01520
 33
        9.20000
999
BLOCK2:OFFICEXSWX2F:BLOCK2:OFFICEXSWX2F_PARTITION_4_0_0
  0
3DFACE
  8
BLOCK2_OFFICEXSWX2F
 62
 43
 10
       -8.97674
 20
       -3.01520
 30
       10.50000
 11
       -8.97674
 21
       -3.01520
 31
        7.00000
 12
       -8.97674
 22
      -11.01520
 32
        7.00000
 13
       -8.97674
 23
      -11.01520
 33
       10.50000
999
BLOCK2:OFFICEXSWX2F:BLOCK2:OFFICEXSWX2F_WALL_5_0_0
  0
3DFACE
  8
BLOCK2_OFFICEXSWX2F
 62
 43
 10
       -8.97674
 20
      -11.01520
 30
       10.50000
 11
       -8.97674
 21
      -11.01520
 31
        7.00000
 12
       -0.97674
 22
      -11.01520
 32
        7.00000
 13
       -0.97674
 23
      -11.01520
 33
       10.50000
999
BLOCK2:OFFICEXSWX2F:BLOCK2:OFFICEXSWX2F_WALL_5_0_0_0_0_0_WIN
  0
3DFACE
  8
BLOCK2_OFFICEXSWX2F
 62
143
 10
       -7.60574
 20
      -11.01520
 30
        9.36000
 11
       -7.60574
 21
      -11.01520
 31
        7.94000
 12
       -2.34774
 22
      -11.01520
 32
        7.94000
 13
       -2.34774
 23
      -11.01520
 33
        9.36000
999
BLOCK2:OFFICEXSWX2F:BLOCK2:OFFICEXSWX2F_FLOOR_0_0_10001
  0
3DFACE
  8
BLOCK2_OFFICEXSWX2F
 62
  8
 10
       -0.97674
 20
       -3.01520
 30
        7.00000
 11
       -0.97674
 21
      -11.01520
 31
        7.00000
 12
       -8.97674
 22
      -11.01520
 32
        7.00000
 13
       -8.97674
 23
       -3.01520
 33
        7.00000
999
BLOCK2:OFFICEXSWX2F:BLOCK2:OFFICEXSWX2F_ROOF_1_0_0
  0
3DFACE
  8
BLOCK2_OFFICEXSWX2F
 62
 15
 10
       -8.97674
 20
       -3.01520
 30
       10.50000
 11
       -8.97674
 21
      -11.01520
 31
       10.50000
 12
       -0.97674
 22
      -11.01520
 32
       10.50000
 13
       -0.97674
 23
       -3.01520
 33
       10.50000
999
BLOCK2:OFFICEXSEX2F:BLOCK2:OFFICEXSEX2F_PARTITION_4_0_10026
  0
3DFACE
  8
BLOCK2_OFFICEXSEX2F
 62
 43
 10
       -0.97674
 20
       -3.01520
 30
       10.50000
 11
       -0.97674
 21
       -3.01520
 31
        7.00000
 12
       -0.97674
 22
      -11.01520
 32
        7.00000
 13
       -0.97674
 23
      -11.01520
 33
       10.50000
999
BLOCK2:OFFICEXSEX2F:BLOCK2:OFFICEXSEX2F_PARTITION_2_0_0
  0
3DFACE
  8
BLOCK2_OFFICEXSEX2F
 62
 43
 10
        7.02326
 20
      -11.01520
 30
       10.50000
 11
        7.02326
 21
      -11.01520
 31
        7.00000
 12
        7.02326
 22
       -3.01520
 32
        7.00000
 13
        7.02326
 23
       -3.01520
 33
       10.50000
999
BLOCK2:OFFICEXSEX2F:BLOCK2:OFFICEXSEX2F_PARTITION_3_0_0
  0
3DFACE
  8
BLOCK2_OFFICEXSEX2F
 62
 43
 10
        7.02326
 20
       -3.01520
 30
       10.50000
 11
        7.02326
 21
       -3.01520
 31
        7.00000
 12
       -0.97674
 22
       -3.01520
 32
        7.00000
 13
       -0.97674
 23
       -3.01520
 33
       10.50000
999
BLOCK2:OFFICEXSEX2F:BLOCK2:OFFICEXSEX2F_PARTITION_3_0_0_0_0_0_DOOR
  0
3DFACE
  8
BLOCK2_OFFICEXSEX2F
 62
 45
 10
        3.47326
 20
       -3.01520
 30
        9.20000
 11
        3.47326
 21
       -3.01520
 31
        7.10000
 12
        2.57326
 22
       -3.01520
 32
        7.10000
 13
        2.57326
 23
       -3.01520
 33
        9.20000
999
BLOCK2:OFFICEXSEX2F:BLOCK2:OFFICEXSEX2F_WALL_5_0_0
  0
3DFACE
  8
BLOCK2_OFFICEXSEX2F
 62
 43
 10
       -0.97674
 20
      -11.01520
 30
       10.50000
 11
       -0.97674
 21
      -11.01520
 31
        7.00000
 12
        7.02326
 22
      -11.01520
 32
        7.00000
 13
        7.02326
 23
      -11.01520
 33
       10.50000
999
BLOCK2:OFFICEXSEX2F:BLOCK2:OFFICEXSEX2F_WALL_5_0_0_0_0_0_WIN
  0
3DFACE
  8
BLOCK2_OFFICEXSEX2F
 62
143
 10
        0.39426
 20
      -11.01520
 30
        9.36000
 11
        0.39426
 21
      -11.01520
 31
        7.94000
 12
        5.65226
 22
      -11.01520
 32
        7.94000
 13
        5.65226
 23
      -11.01520
 33
        9.36000
999
BLOCK2:OFFICEXSEX2F:BLOCK2:OFFICEXSEX2F_FLOOR_0_0_10007
  0
3DFACE
  8
BLOCK2_OFFICEXSEX2F
 62
  8
 10
        7.02326
 20
       -3.01520
 30
        7.00000
 11
        7.02326
 21
      -11.01520
 31
        7.00000
 12
       -0.97674
 22
      -11.01520
 32
        7.00000
 13
       -0.97674
 23
       -3.01520
 33
        7.00000
999
BLOCK2:OFFICEXSEX2F:BLOCK2:OFFICEXSEX2F_ROOF_1_0_0
  0
3DFACE
  8
BLOCK2_OFFICEXSEX2F
 62
 15
 10
       -0.97674
 20
       -3.01520
 30
       10.50000
 11
       -0.97674
 21
      -11.01520
 31
       10.50000
 12
        7.02326
 22
      -11.01520
 32
       10.50000
 13
        7.02326
 23
       -3.01520
 33
       10.50000
999
BLOCK2:OFFICEXNWX2F:BLOCK2:OFFICEXNWX2F_PARTITION_2_0_0
  0
3DFACE
  8
BLOCK2_OFFICEXNWX2F
 62
 43
 10
       -0.97674
 20
       -1.01520
 30
       10.50000
 11
       -0.97674
 21
       -1.01520
 31
        7.00000
 12
       -0.97674
 22
        6.98480
 32
        7.00000
 13
       -0.97674
 23
        6.98480
 33
       10.50000
999
BLOCK2:OFFICEXNWX2F:BLOCK2:OFFICEXNWX2F_WALL_3_0_0
  0
3DFACE
  8
BLOCK2_OFFICEXNWX2F
 62
 43
 10
       -0.97674
 20
        6.98480
 30
       10.50000
 11
       -0.97674
 21
        6.98480
 31
        7.00000
 12
       -8.97674
 22
        6.98480
 32
        7.00000
 13
       -8.97674
 23
        6.98480
 33
       10.50000
999
BLOCK2:OFFICEXNWX2F:BLOCK2:OFFICEXNWX2F_WALL_3_0_0_0_0_0_WIN
  0
3DFACE
  8
BLOCK2_OFFICEXNWX2F
 62
143
 10
       -2.34774
 20
        6.98480
 30
        9.36000
 11
       -2.34774
 21
        6.98480
 31
        7.94000
 12
       -7.60574
 22
        6.98480
 32
        7.94000
 13
       -7.60574
 23
        6.98480
 33
        9.36000
999
BLOCK2:OFFICEXNWX2F:BLOCK2:OFFICEXNWX2F_PARTITION_4_0_0
  0
3DFACE
  8
BLOCK2_OFFICEXNWX2F
 62
 43
 10
       -8.97674
 20
        6.98480
 30
       10.50000
 11
       -8.97674
 21
        6.98480
 31
        7.00000
 12
       -8.97674
 22
       -1.01520
 32
        7.00000
 13
       -8.97674
 23
       -1.01520
 33
       10.50000
999
BLOCK2:OFFICEXNWX2F:BLOCK2:OFFICEXNWX2F_PARTITION_5_0_0
  0
3DFACE
  8
BLOCK2_OFFICEXNWX2F
 62
 43
 10
       -8.97674
 20
       -1.01520
 30
       10.50000
 11
       -8.97674
 21
       -1.01520
 31
        7.00000
 12
       -0.97674
 22
       -1.01520
 32
        7.00000
 13
       -0.97674
 23
       -1.01520
 33
       10.50000
999
BLOCK2:OFFICEXNWX2F:BLOCK2:OFFICEXNWX2F_PARTITION_5_0_0_0_0_0_DOOR
  0
3DFACE
  8
BLOCK2_OFFICEXNWX2F
 62
 45
 10
       -5.42674
 20
       -1.01520
 30
        9.20000
 11
       -5.42674
 21
       -1.01520
 31
        7.10000
 12
       -4.52674
 22
       -1.01520
 32
        7.10000
 13
       -4.52674
 23
       -1.01520
 33
        9.20000
999
BLOCK2:OFFICEXNWX2F:BLOCK2:OFFICEXNWX2F_FLOOR_0_0_10012
  0
3DFACE
  8
BLOCK2_OFFICEXNWX2F
 62
  8
 10
       -0.97674
 20
        6.98480
 30
        7.00000
 11
       -0.97674
 21
       -1.01520
 31
        7.00000
 12
       -8.97674
 22
       -1.01520
 32
        7.00000
 13
       -8.97674
 23
        6.98480
 33
        7.00000
999
BLOCK2:OFFICEXNWX2F:BLOCK2:OFFICEXNWX2F_ROOF_1_0_0
  0
3DFACE
  8
BLOCK2_OFFICEXNWX2F
 62
 15
 10
       -8.97674
 20
        6.98480
 30
       10.50000
 11
       -8.97674
 21
       -1.01520
 31
       10.50000
 12
       -0.97674
 22
       -1.01520
 32
       10.50000
 13
       -0.97674
 23
        6.98480
 33
       10.50000
999
BLOCK2:OFFICEXNEX2F:BLOCK2:OFFICEXNEX2F_PARTITION_4_0_10033
  0
3DFACE
  8
BLOCK2_OFFICEXNEX2F
 62
 43
 10
       -0.97674
 20
        6.98480
 30
       10.50000
 11
       -0.97674
 21
        6.98480
 31
        7.00000
 12
       -0.97674
 22
       -1.01520
 32
        7.00000
 13
       -0.97674
 23
       -1.01520
 33
       10.50000
999
BLOCK2:OFFICEXNEX2F:BLOCK2:OFFICEXNEX2F_PARTITION_2_0_0
  0
3DFACE
  8
BLOCK2_OFFICEXNEX2F
 62
 43
 10
        7.02326
 20
       -1.01520
 30
       10.50000
 11
        7.02326
 21
       -1.01520
 31
        7.00000
 12
        7.02326
 22
        6.98480
 32
        7.00000
 13
        7.02326
 23
        6.98480
 33
       10.50000
999
BLOCK2:OFFICEXNEX2F:BLOCK2:OFFICEXNEX2F_WALL_3_0_0
  0
3DFACE
  8
BLOCK2_OFFICEXNEX2F
 62
 43
 10
        7.02326
 20
        6.98480
 30
       10.50000
 11
        7.02326
 21
        6.98480
 31
        7.00000
 12
       -0.97674
 22
        6.98480
 32
        7.00000
 13
       -0.97674
 23
        6.98480
 33
       10.50000
999
BLOCK2:OFFICEXNEX2F:BLOCK2:OFFICEXNEX2F_WALL_3_0_0_0_0_0_WIN
  0
3DFACE
  8
BLOCK2_OFFICEXNEX2F
 62
143
 10
        5.65226
 20
        6.98480
 30
        9.36000
 11
        5.65226
 21
        6.98480
 31
        7.94000
 12
        0.39426
 22
        6.98480
 32
        7.94000
 13
        0.39426
 23
        6.98480
 33
        9.36000
999
BLOCK2:OFFICEXNEX2F:BLOCK2:OFFICEXNEX2F_PARTITION_5_0_0
  0
3DFACE
  8
BLOCK2_OFFICEXNEX2F
 62
 43
 10
       -0.97674
 20
       -1.01520
 30
       10.50000
 11
       -0.97674
 21
       -1.01520
 31
        7.00000
 12
        7.02326
 22
       -1.01520
 32
        7.00000
 13
        7.02326
 23
       -1.01520
 33
       10.50000
999
BLOCK2:OFFICEXNEX2F:BLOCK2:OFFICEXNEX2F_PARTITION_5_0_0_0_0_0_DOOR
  0
3DFACE
  8
BLOCK2_OFFICEXNEX2F
 62
 45
 10
        2.57326
 20
       -1.01520
 30
        9.20000
 11
        2.57326
 21
       -1.01520
 31
        7.10000
 12
        3.47326
 22
       -1.01520
 32
        7.10000
 13
        3.47326
 23
       -1.01520
 33
        9.20000
999
BLOCK2:OFFICEXNEX2F:BLOCK2:OFFICEXNEX2F_FLOOR_0_0_10018
  0
3DFACE
  8
BLOCK2_OFFICEXNEX2F
 62
  8
 10
        7.02326
 20
        6.98480
 30
        7.00000
 11
        7.02326
 21
       -1.01520
 31
        7.00000
 12
       -0.97674
 22
       -1.01520
 32
        7.00000
 13
       -0.97674
 23
        6.98480
 33
        7.00000
999
BLOCK2:OFFICEXNEX2F:BLOCK2:OFFICEXNEX2F_ROOF_1_0_0
  0
3DFACE
  8
BLOCK2_OFFICEXNEX2F
 62
 15
 10
       -0.97674
 20
        6.98480
 30
       10.50000
 11
       -0.97674
 21
       -1.01520
 31
       10.50000
 12
        7.02326
 22
       -1.01520
 32
       10.50000
 13
        7.02326
 23
        6.98480
 33
       10.50000
999
BLOCK2:CORRIDORX2F:BLOCK2:CORRIDORX2F_PARTITION_6_0_10027
  0
3DFACE
  8
BLOCK2_CORRIDORX2F
 62
 43
 10
       -8.97674
 20
       -3.01520
 30
       10.50000
 11
       -8.97674
 21
       -3.01520
 31
        7.00000
 12
       -0.97674
 22
       -3.01520
 32
        7.00000
 13
       -0.97674
 23
       -3.01520
 33
       10.50000
999
BLOCK2:CORRIDORX2F:BLOCK2:CORRIDORX2F_PARTITION_6_0_0_0_0_0_DOOR_10029
  0
3DFACE
  8
BLOCK2_CORRIDORX2F
 62
 45
 10
       -5.42674
 20
       -3.01520
 30
        9.20000
 11
       -5.42674
 21
       -3.01520
 31
        7.10000
 12
       -4.52674
 22
       -3.01520
 32
        7.10000
 13
       -4.52674
 23
       -3.01520
 33
        9.20000
999
BLOCK2:CORRIDORX2F:BLOCK2:CORRIDORX2F_PARTITION_7_0_10031
  0
3DFACE
  8
BLOCK2_CORRIDORX2F
 62
 43
 10
       -0.97674
 20
       -3.01520
 30
       10.50000
 11
       -0.97674
 21
       -3.01520
 31
        7.00000
 12
        7.02326
 22
       -3.01520
 32
        7.00000
 13
        7.02326
 23
       -3.01520
 33
       10.50000
999
BLOCK2:CORRIDORX2F:BLOCK2:CORRIDORX2F_PARTITION_7_0_0_0_0_0_DOOR_10033
  0
3DFACE
  8
BLOCK2_CORRIDORX2F
 62
 45
 10
        2.57326
 20
       -3.01520
 30
        9.20000
 11
        2.57326
 21
       -3.01520
 31
        7.10000
 12
        3.47326
 22
       -3.01520
 32
        7.10000
 13
        3.47326
 23
       -3.01520
 33
        9.20000
999
BLOCK2:CORRIDORX2F:BLOCK2:CORRIDORX2F_PARTITION_4_0_10035
  0
3DFACE
  8
BLOCK2_CORRIDORX2F
 62
 43
 10
       -0.97674
 20
       -1.01520
 30
       10.50000
 11
       -0.97674
 21
       -1.01520
 31
        7.00000
 12
       -8.97674
 22
       -1.01520
 32
        7.00000
 13
       -8.97674
 23
       -1.01520
 33
       10.50000
999
BLOCK2:CORRIDORX2F:BLOCK2:CORRIDORX2F_PARTITION_4_0_0_0_0_0_DOOR_10037
  0
3DFACE
  8
BLOCK2_CORRIDORX2F
 62
 45
 10
       -4.52674
 20
       -1.01520
 30
        9.20000
 11
       -4.52674
 21
       -1.01520
 31
        7.10000
 12
       -5.42674
 22
       -1.01520
 32
        7.10000
 13
       -5.42674
 23
       -1.01520
 33
        9.20000
999
BLOCK2:CORRIDORX2F:BLOCK2:CORRIDORX2F_PARTITION_3_0_10038
  0
3DFACE
  8
BLOCK2_CORRIDORX2F
 62
 43
 10
        7.02326
 20
       -1.01520
 30
       10.50000
 11
        7.02326
 21
       -1.01520
 31
        7.00000
 12
       -0.97674
 22
       -1.01520
 32
        7.00000
 13
       -0.97674
 23
       -1.01520
 33
       10.50000
999
BLOCK2:CORRIDORX2F:BLOCK2:CORRIDORX2F_PARTITION_3_0_0_0_0_0_DOOR_10040
  0
3DFACE
  8
BLOCK2_CORRIDORX2F
 62
 45
 10
        3.47326
 20
       -1.01520
 30
        9.20000
 11
        3.47326
 21
       -1.01520
 31
        7.10000
 12
        2.57326
 22
       -1.01520
 32
        7.10000
 13
        2.57326
 23
       -1.01520
 33
        9.20000
999
BLOCK2:CORRIDORX2F:BLOCK2:CORRIDORX2F_PARTITION_2_0_0
  0
3DFACE
  8
BLOCK2_CORRIDORX2F
 62
 43
 10
        7.02326
 20
       -3.01520
 30
       10.50000
 11
        7.02326
 21
       -3.01520
 31
        7.00000
 12
        7.02326
 22
       -1.01520
 32
        7.00000
 13
        7.02326
 23
       -1.01520
 33
       10.50000
999
BLOCK2:CORRIDORX2F:BLOCK2:CORRIDORX2F_PARTITION_5_0_0
  0
3DFACE
  8
BLOCK2_CORRIDORX2F
 62
 43
 10
       -8.97674
 20
       -1.01520
 30
       10.50000
 11
       -8.97674
 21
       -1.01520
 31
        7.00000
 12
       -8.97674
 22
       -3.01520
 32
        7.00000
 13
       -8.97674
 23
       -3.01520
 33
       10.50000
999
BLOCK2:CORRIDORX2F:BLOCK2:CORRIDORX2F_FLOOR_0_0_10023
  0
3DFACE
  8
BLOCK2_CORRIDORX2F
 62
  8
 10
        7.02326
 20
       -1.01520
 30
        7.00000
 11
        7.02326
 21
       -3.01520
 31
        7.00000
 12
       -8.97674
 22
       -3.01520
 32
        7.00000
 13
       -8.97674
 23
       -1.01520
 33
        7.00000
999
BLOCK2:CORRIDORX2F:BLOCK2:CORRIDORX2F_ROOF_1_0_0
  0
3DFACE
  8
BLOCK2_CORRIDORX2F
 62
 15
 10
       -8.97674
 20
       -1.01520
 30
       10.50000
 11
       -8.97674
 21
       -3.01520
 31
       10.50000
 12
        7.02326
 22
       -3.01520
 32
       10.50000
 13
        7.02326
 23
       -1.01520
 33
       10.50000
999
BLOCK1:OFFICEXSWX1F:DayRefPt:1
  0
CIRCLE
  8
BLOCK1_OFFICEXSWX1F
 62
 10
 10
       -4.97700
 20
       -7.01500
 30
        4.40000
 40
        0.20000
999
BLOCK1:OFFICEXSEX1F:DayRefPt:1
  0
CIRCLE
  8
BLOCK1_OFFICEXSEX1F
 62
 10
 10
        3.02300
 20
       -7.01500
 30
        4.40000
 40
        0.20000
999
BLOCK1:OFFICEXNWX1F:DayRefPt:1
  0
CIRCLE
  8
BLOCK1_OFFICEXNWX1F
 62
 10
 10
       -4.97700
 20
        2.98500
 30
        4.40000
 40
        0.20000
999
BLOCK1:CORRIDORX1F:DayRefPt:1
  0
CIRCLE
  8
BLOCK1_CORRIDORX1F
 62
 10
 10
       -0.97700
 20
       -2.01500
 30
        4.40000
 40
        0.20000
999
BLOCK2:OFFICEXSWX2F:DayRefPt:1
  0
CIRCLE
  8
BLOCK2_OFFICEXSWX2F
 62
 10
 10
       -4.97700
 20
       -7.01500
 30
        7.90000
 40
        0.20000
999
BLOCK2:OFFICEXSEX2F:DayRefPt:1
  0
CIRCLE
  8
BLOCK2_OFFICEXSEX2F
 62
 10
 10
        3.02300
 20
       -7.01500
 30
        7.90000
 40
        0.20000
999
BLOCK2:OFFICEXNWX2F:DayRefPt:1
  0
CIRCLE
  8
BLOCK2_OFFICEXNWX2F
 62
 10
 10
       -4.97700
 20
        2.98500
 30
        7.90000
 40
        0.20000
999
BLOCK2:OFFICEXNEX2F:DayRefPt:1
  0
CIRCLE
  8
BLOCK2_OFFICEXNEX2F
 62
 10
 10
        3.02300
 20
        2.98500
 30
        7.90000
 40
        0.20000
999
BLOCK2:CORRIDORX2F:DayRefPt:1
  0
CIRCLE
  8
BLOCK2_CORRIDORX2F
 62
 10
 10
       -0.97700
 20
       -2.01500
 30
        7.90000
 40
        0.20000
999
BLOCK1:OFFICEXSWX1F:DEDayRefPt:1
  0
CIRCLE
  8
BLOCK1_OFFICEXSWX1F
 62
 10
 10
       -4.97700
 20
       -7.01500
 30
        4.40000
 40
        0.20000
999
BLOCK1:OFFICEXSEX1F:DEDayRefPt:1
  0
CIRCLE
  8
BLOCK1_OFFICEXSEX1F
 62
 10
 10
        3.02300
 20
       -7.01500
 30
        4.40000
 40
        0.20000
999
BLOCK1:OFFICEXNWX1F:DEDayRefPt:1
  0
CIRCLE
  8
BLOCK1_OFFICEXNWX1F
 62
 10
 10
       -4.97700
 20
        2.98500
 30
        4.40000
 40
        0.20000
999
BLOCK1:CORRIDORX1F:DEDayRefPt:1
  0
CIRCLE
  8
BLOCK1_CORRIDORX1F
 62
 10
 10
       -0.97700
 20
       -2.01500
 30
        4.40000
 40
        0.20000
999
BLOCK2:OFFICEXSWX2F:DEDayRefPt:1
  0
CIRCLE
  8
BLOCK2_OFFICEXSWX2F
 62
 10
 10
       -4.97700
 20
       -7.01500
 30
        7.90000
 40
        0.20000
999
BLOCK2:OFFICEXSEX2F:DEDayRefPt:1
  0
CIRCLE
  8
BLOCK2_OFFICEXSEX2F
 62
 10
 10
        3.02300
 20
       -7.01500
 30
        7.90000
 40
        0.20000
999
BLOCK2:OFFICEXNWX2F:DEDayRefPt:1
  0
CIRCLE
  8
BLOCK2_OFFICEXNWX2F
 62
 10
 10
       -4.97700
 20
        2.98500
 30
        7.90000
 40
        0.20000
999
BLOCK2:OFFICEXNEX2F:DEDayRefPt:1
  0
CIRCLE
  8
BLOCK2_OFFICEXNEX2F
 62
 10
 10
        3.02300
 20
        2.98500
 30
        7.90000
 40
        0.20000
999
BLOCK2:CORRIDORX2F:DEDayRefPt:1
  0
CIRCLE
  8
BLOCK2_CORRIDORX2F
 62
 10
 10
       -0.97700
 20
       -2.01500
 30
        7.90000
 40
        0.20000
  0
ENDSEC
  0
EOF
