Program Version,EnergyPlus, Version 9.4.0-998c4b761e, YMD=2024.12.04 11:19
