Program Version,EnergyPlus, Version 9.6.0-f420c06a69, YMD=2024.12.17 19:59
