Program Version,EnergyPlus, Version 9.6.0-f420c06a69, YMD=2024.12.20 20:20,
   ************* Beginning Zone Sizing Calculations
   ** Warning ** Weather file location will be used rather than entered (IDF) Location object.
   **   ~~~   ** ..Location object=UNTITLED (01-01:31-12)  (01-01:31-12)
   **   ~~~   ** ..Weather File Location=PARIS_ ORLY - FRA IWEC Data WMO#=071490
   **   ~~~   ** ..due to location differences, Latitude difference=[3.51] degrees, Longitude difference=[5.25] degrees.
   **   ~~~   ** ..Time Zone difference=[0.0] hour(s), Elevation difference=[66.55] percent, [191.00] meters.
   ** Warning ** WindowShadingControl: Interior shade or blind: Potential problem in match of unshaded/shaded constructions, shaded should have 1 more layers than unshaded.
   **   ~~~   ** Unshaded construction=SGL CLR 6MM - 2001
   **   ~~~   ** Shaded construction=SGL CLR 6MM - 2001
   **   ~~~   ** If preceding two constructions are same name, you have likely specified a WindowShadingControl (Field #3) with the Window Construction rather than a shaded construction.
   ** Severe  ** GetHTSubSurfaceData: Window "BLOCK1:OFFICEXSWX1F_WALL_5_0_0_0_0_0_WIN" must not directly reference
   **   ~~~   ** a Construction (i.e, "SGL CLR 6MM - 2001") with a shading device.
   **   ~~~   ** Use WindowShadingControl to specify a shading device for a window.
   ** Severe  ** GetHTSubSurfaceData: Window "BLOCK1:OFFICEXSEX1F_WALL_5_0_0_0_0_0_WIN" must not directly reference
   **   ~~~   ** a Construction (i.e, "SGL CLR 6MM - 2001") with a shading device.
   **   ~~~   ** Use WindowShadingControl to specify a shading device for a window.
   ** Severe  ** GetHTSubSurfaceData: Window "BLOCK1:OFFICEXNWX1F_WALL_3_0_0_0_0_0_WIN" must not directly reference
   **   ~~~   ** a Construction (i.e, "SGL CLR 6MM - 2001") with a shading device.
   **   ~~~   ** Use WindowShadingControl to specify a shading device for a window.
   ** Severe  ** GetHTSubSurfaceData: Window "BLOCK1:OFFICEXNEX1F_WALL_3_0_0_0_0_0_WIN" must not directly reference
   **   ~~~   ** a Construction (i.e, "SGL CLR 6MM - 2001") with a shading device.
   **   ~~~   ** Use WindowShadingControl to specify a shading device for a window.
   ** Severe  ** GetHTSubSurfaceData: Window "BLOCK2:OFFICEXSWX2F_WALL_5_0_0_0_0_0_WIN" must not directly reference
   **   ~~~   ** a Construction (i.e, "SGL CLR 6MM - 2001") with a shading device.
   **   ~~~   ** Use WindowShadingControl to specify a shading device for a window.
   ** Severe  ** GetHTSubSurfaceData: Window "BLOCK2:OFFICEXSEX2F_WALL_5_0_0_0_0_0_WIN" must not directly reference
   **   ~~~   ** a Construction (i.e, "SGL CLR 6MM - 2001") with a shading device.
   **   ~~~   ** Use WindowShadingControl to specify a shading device for a window.
   ** Severe  ** GetHTSubSurfaceData: Window "BLOCK2:OFFICEXNWX2F_WALL_3_0_0_0_0_0_WIN" must not directly reference
   **   ~~~   ** a Construction (i.e, "SGL CLR 6MM - 2001") with a shading device.
   **   ~~~   ** Use WindowShadingControl to specify a shading device for a window.
   ** Severe  ** GetHTSubSurfaceData: Window "BLOCK2:OFFICEXNEX2F_WALL_3_0_0_0_0_0_WIN" must not directly reference
   **   ~~~   ** a Construction (i.e, "SGL CLR 6MM - 2001") with a shading device.
   **   ~~~   ** Use WindowShadingControl to specify a shading device for a window.
   **  Fatal  ** GetSurfaceData: Errors discovered, program terminates.
   ...Summary of Errors that led to program termination:
   ..... Reference severe error count=8
   ..... Last severe error=GetHTSubSurfaceData: Window "BLOCK2:OFFICEXNEX2F_WALL_3_0_0_0_0_0_WIN" must not directly reference
   ************* Warning:  Node connection errors not checked - most system input has not been read (see previous warning).
   ************* Fatal error -- final processing.  Program exited before simulations began.  See previous error messages.
   ************* EnergyPlus Warmup Error Summary. During Warmup: 0 Warning; 0 Severe Errors.
   ************* EnergyPlus Sizing Error Summary. During Sizing: 2 Warning; 8 Severe Errors.
   ************* EnergyPlus Terminated--Fatal Error Detected. 2 Warning; 8 Severe Errors; Elapsed Time=00hr 00min  0.37sec
